# created with PyMOL 2.3.3
@<TRIPOS>MOLECULE
DCO
60 61 2                 
SMALL
USER_CHARGES
@<TRIPOS>ATOM
1	   P	-0.356	-9.218	-1.848	 P	1	DC1	1.166	
2	 O1P	-0.311	-10.489	-2.605	O.2	1	DC1	-0.776	
3	 O2P	-1.334	-9.156	-0.740	 O	1	DC1	-0.776	
4	 C5'	2.021	-8.156	-2.146	C.3	1	DC1	-0.007	
5	 O5'	1.105	-8.869	-1.295	O.3	1	DC1	-0.495	
6	 C4'	2.726	-7.072	-1.355	C.3	1	DC1	0.163	
7	 O4'	1.986	-5.817	-1.352	O.3	1	DC1	-0.369	
8	 C3'	2.952	-7.370	0.127	C.3	1	DC1	0.071	
9	 O3'	4.210	-6.832	0.518	 O	1	DC1	-0.523	
10	 C2'	1.848	-6.598	0.850	C.3	1	DC1	-0.085	
11	 C1'	1.913	-5.344	-0.016	C.3	1	DC1	-0.012	
12	  N1	0.711	-4.472	0.101	N.pl3	1	DC1	-0.034	
13	  C2	0.897	-3.095	0.010	C.2	1	DC1	0.796	
14	  O2	2.040	-2.657	-0.163	O.2	1	DC1	-0.655	
15	  N3	-0.186	-2.282	0.115	N.2	1	DC1	-0.775	
16	  C4	-1.409	-2.796	0.302	C.2	1	DC1	0.844	
17	  N4	-2.433	-1.963	0.398	N.pl3	1	DC1	-0.977	
18	  C5	-1.621	-4.210	0.399	C.2	1	DC1	-0.522	
19	  C6	-0.526	-5.004	0.292	C.2	1	DC1	-0.018	
20	  H5	-2.616	-4.628	0.552	 H	1	DC1	0.186	
21	  H6	-0.640	-6.086	0.360	 H	1	DC1	0.229	
22	 H1'	2.762	-4.737	0.298	 H	1	DC1	0.196	
23	 H3'	2.938	-8.438	0.347	 H	1	DC1	0.098	
24	 H4'	3.682	-7.016	-1.876	 H	1	DC1	0.118	
25	 H41	-3.366	-2.324	0.539	 H	1	DC1	0.431	
26	 H42	-2.282	-0.967	0.330	 H	1	DC1	0.431	
27	H2'1	1.969	-6.459	1.924	 H	1	DC1	0.072	
28	H2'2	0.881	-7.097	0.793	 H	1	DC1	0.072	
29	H5'1	1.466	-7.698	-2.965	 H	1	DC1	0.075	
30	H5'2	2.760	-8.851	-2.545	 H	1	DC1	0.075	
31	   P	5.267	-7.619	-0.426	P.3	2	POS1	1.166	
32	 O1P	5.089	-9.059	-0.008	O.co2	2	POS1	-0.776	
33	 O2P	4.851	-7.218	-1.819	O.co2	2	POS1	-0.776	
34	 O01	6.690	-7.350	-0.338	 O	2	POS1	1.180	
35	 C10	7.386	-8.137	-1.308	C.3	2	POS1	-4.268	
36	 C11	8.899	-7.861	-1.203	C.3	2	POS1	0.083	
37	 C12	9.634	-8.677	-2.300	C.3	2	POS1	-3.391	
38	 C13	11.152	-8.402	-2.319	C.3	2	POS1	0.175	
39	 C14	11.824	-9.272	-3.407	C.3	2	POS1	-0.398	
40	 C15	13.334	-8.980	-3.527	C.3	2	POS1	-7.531	
41	 C16	15.223	-9.866	-4.705	C.2	2	POS1	0.597	
42	 C17	15.827	-10.736	-5.785	C.3	2	POS1	-0.366	
43	 O98	15.940	-9.195	-3.951	O.2	2	POS1	-0.568	
44	 N99	13.941	-9.822	-4.567	N.pl3	2	POS1	2.842	
45	 H11	13.352	-10.369	-5.178	 H	2	POS1	-0.344	
46	 H12	13.818	-9.167	-2.566	 H	2	POS1	2.032	
47	 H13	13.481	-7.921	-3.784	 H	2	POS1	2.032	
48	 H14	11.680	-10.328	-3.162	 H	2	POS1	0.695	
49	 H15	11.348	-9.085	-4.373	 H	2	POS1	0.695	
50	 H16	11.593	-8.625	-1.353	 H	2	POS1	0.506	
51	 H17	11.334	-7.345	-2.536	 H	2	POS1	0.506	
52	 H18	9.458	-9.736	-2.137	 H	2	POS1	1.060	
53	 H19	9.222	-8.423	-3.277	 H	2	POS1	1.060	
54	 H21	9.018	-6.801	-1.425	 H	2	POS1	0.461	
55	 H22	9.295	-8.130	-0.225	 H	2	POS1	0.461	
56	 H23	7.038	-7.875	-2.307	 H	2	POS1	1.419	
57	 H24	7.196	-9.194	-1.123	 H	2	POS1	1.419	
58	 H95	16.402	-10.130	-6.470	 H	2	POS1	0.112	
59	 H96	15.045	-11.240	-6.334	 H	2	POS1	0.112	
60	 H97	16.477	-11.478	-5.343	 H	2	POS1	0.112	
@<TRIPOS>BOND
1 1 2 2
2 1 3 1
3 1 5 1
4 4 5 1
5 4 6 1
6 4 29 1
7 4 30 1
8 6 7 1
9 6 8 1
10 6 24 1
11 7 11 1
12 8 9 1
13 8 10 1
14 8 23 1
15 10 11 1
16 10 27 1
17 10 28 1
18 11 12 1
19 11 22 1
20 12 13 1
21 12 19 1
22 13 14 2
23 13 15 1
24 15 16 2
25 16 17 1
26 16 18 1
27 17 25 1
28 17 26 1
29 18 19 2
30 18 20 1
31 19 21 1
32 9 31 1
33 31 32 1
34 31 33 1
35 31 34 1
36 34 35 1
37 35 36 1
38 35 56 1
39 35 57 1
40 36 37 1
41 36 54 1
42 36 55 1
43 37 38 1
44 37 52 1
45 37 53 1
46 38 39 1
47 38 50 1
48 38 51 1
49 39 40 1
50 39 48 1
51 39 49 1
52 40 44 1
53 40 46 1
54 40 47 1
55 41 42 1
56 41 43 2
57 41 44 1
58 42 58 1
59 42 59 1
60 42 60 1
61 44 45 1
@<TRIPOS>SUBSTRUCTURE
1	DC1	1	RESIDUE	1 ****	DC
2	POS1	31	GROUP	1 ****	POS
