# created with PyMOL 2.3.3
@<TRIPOS>MOLECULE
DCP
57 58 2                 
SMALL
USER_CHARGES
@<TRIPOS>ATOM
1	   P	-0.356	-9.218	-1.848	P.3	1	DC1	1.166	
2	 O1P	-0.311	-10.489	-2.605	O.co2	1	DC1	-0.776	
3	 O2P	-1.334	-9.156	-0.740	O.co2	1	DC1	-0.776	
4	 C5'	2.021	-8.156	-2.146	C.3	1	DC1	-0.007	
5	 O5'	1.105	-8.869	-1.295	O.3	1	DC1	-0.495	
6	 C4'	2.726	-7.072	-1.355	C.3	1	DC1	0.163	
7	 O4'	1.986	-5.817	-1.352	O.3	1	DC1	-0.369	
8	 C3'	2.952	-7.370	0.127	C.3	1	DC1	0.071	
9	 O3'	4.210	-6.832	0.518	 O	1	DC1	-0.523	
10	 C2'	1.848	-6.598	0.850	C.3	1	DC1	-0.085	
11	 C1'	1.913	-5.344	-0.016	C.3	1	DC1	-0.012	
12	  N1	0.711	-4.472	0.101	N.pl3	1	DC1	-0.034	
13	  C2	0.897	-3.095	0.010	C.2	1	DC1	0.796	
14	  O2	2.040	-2.657	-0.163	O.2	1	DC1	-0.655	
15	  N3	-0.186	-2.282	0.115	N.2	1	DC1	-0.775	
16	  C4	-1.409	-2.796	0.302	C.2	1	DC1	0.844	
17	  N4	-2.433	-1.963	0.398	N.pl3	1	DC1	-0.977	
18	  C5	-1.621	-4.210	0.399	C.2	1	DC1	-0.522	
19	  C6	-0.526	-5.004	0.292	C.2	1	DC1	-0.018	
20	  H5	-2.616	-4.628	0.552	 H	1	DC1	0.186	
21	  H6	-0.640	-6.086	0.360	 H	1	DC1	0.229	
22	 H1'	2.762	-4.737	0.298	 H	1	DC1	0.196	
23	 H3'	2.938	-8.438	0.347	 H	1	DC1	0.098	
24	 H4'	3.682	-7.016	-1.876	 H	1	DC1	0.118	
25	 H41	-3.366	-2.324	0.539	 H	1	DC1	0.431	
26	 H42	-2.282	-0.967	0.330	 H	1	DC1	0.431	
27	H2'1	1.969	-6.459	1.924	 H	1	DC1	0.072	
28	H2'2	0.881	-7.097	0.793	 H	1	DC1	0.072	
29	H5'1	1.466	-7.698	-2.965	 H	1	DC1	0.075	
30	H5'2	2.760	-8.851	-2.545	 H	1	DC1	0.075	
31	 O01	-0.988	-8.274	-2.870	O.3	2	POS1	1.180	
32	 C10	-2.307	-8.710	-3.209	C.3	2	POS1	-4.268	
33	 C11	-2.914	-7.750	-4.250	C.3	2	POS1	0.083	
34	 C12	-4.365	-8.202	-4.563	C.3	2	POS1	-3.391	
35	 C13	-5.080	-7.250	-5.543	C.3	2	POS1	0.175	
36	 C14	-6.503	-7.779	-5.838	C.3	2	POS1	-0.398	
37	 C15	-7.296	-6.822	-6.752	C.3	2	POS1	-7.531	
38	 C16	-9.401	-6.801	-7.896	C.2	2	POS1	0.597	
39	 C17	-10.784	-7.361	-8.145	C.3	2	POS1	-0.366	
40	 O98	-8.988	-5.820	-8.527	O.2	2	POS1	-0.568	
41	 N99	-8.641	-7.354	-7.012	N.pl3	2	POS1	2.842	
42	 H11	-8.972	-8.157	-6.497	 H	2	POS1	-0.344	
43	 H12	-6.759	-6.689	-7.694	 H	2	POS1	2.032	
44	 H13	-7.381	-5.840	-6.265	 H	2	POS1	2.032	
45	 H14	-6.429	-8.758	-6.320	 H	2	POS1	0.695	
46	 H15	-7.049	-7.908	-4.900	 H	2	POS1	0.695	
47	 H16	-4.524	-7.169	-6.471	 H	2	POS1	0.506	
48	 H17	-5.149	-6.249	-5.104	 H	2	POS1	0.506	
49	 H18	-4.346	-9.206	-4.979	 H	2	POS1	1.060	
50	 H19	-4.938	-8.244	-3.637	 H	2	POS1	1.060	
51	 H21	-2.955	-6.777	-3.761	 H	2	POS1	0.461	
52	 H22	-2.334	-7.729	-5.172	 H	2	POS1	0.461	
53	 H23	-2.929	-8.715	-2.314	 H	2	POS1	1.419	
54	 H24	-2.261	-9.716	-3.625	 H	2	POS1	1.419	
55	 H95	-11.531	-6.609	-7.941	 H	2	POS1	0.112	
56	 H96	-10.959	-8.212	-7.502	 H	2	POS1	0.112	
57	 H97	-10.876	-7.677	-9.174	 H	2	POS1	0.112	
@<TRIPOS>BOND
1 1 2 2
2 1 3 1
3 1 5 1
4 1 31 1
5 4 5 1
6 4 6 1
7 4 29 1
8 4 30 1
9 6 7 1
10 6 8 1
11 6 24 1
12 7 11 1
13 8 9 1
14 8 10 1
15 8 23 1
16 10 11 1
17 10 27 1
18 10 28 1
19 11 12 1
20 11 22 1
21 12 13 1
22 12 19 1
23 13 14 2
24 13 15 1
25 15 16 2
26 16 17 1
27 16 18 1
28 17 25 1
29 17 26 1
30 18 19 2
31 18 20 1
32 19 21 1
33 31 32 1
34 32 33 1
35 32 53 1
36 32 54 1
37 33 34 1
38 33 51 1
39 33 52 1
40 34 35 1
41 34 49 1
42 34 50 1
43 35 36 1
44 35 47 1
45 35 48 1
46 36 37 1
47 36 45 1
48 36 46 1
49 37 41 1
50 37 43 1
51 37 44 1
52 38 39 1
53 38 40 2
54 38 41 1
55 39 55 1
56 39 56 1
57 39 57 1
58 41 42 1
@<TRIPOS>SUBSTRUCTURE
1	DC1	1	RESIDUE	1 ****	DC
2	POS1	31	GROUP	1 ****	POS
