# created with PyMOL 2.3.3
@<TRIPOS>MOLECULE
DGO
63 65 2                 
SMALL
USER_CHARGES
@<TRIPOS>ATOM
1	   P	-0.356	9.218	1.848	 P	1	DG1	1.166	
2	 O1P	-0.311	10.489	2.605	O.2	1	DG1	-0.776	
3	 O2P	-1.334	9.156	0.740	 O	1	DG1	-0.776	
4	 C5'	2.021	8.156	2.146	C.3	1	DG1	-0.007	
5	 O5'	1.105	8.869	1.295	O.3	1	DG1	-0.495	
6	 C4'	2.726	7.072	1.355	C.3	1	DG1	0.163	
7	 O4'	1.986	5.817	1.352	O.3	1	DG1	-0.369	
8	 C3'	2.952	7.370	-0.127	C.3	1	DG1	0.071	
9	 O3'	4.210	6.832	-0.518	 O	1	DG1	-0.523	
10	 C2'	1.848	6.598	-0.850	C.3	1	DG1	-0.085	
11	 C1'	1.913	5.344	0.016	C.3	1	DG1	0.036	
12	  N1	0.233	0.533	0.025	N.pl3	1	DG1	-0.505	
13	  C2	1.516	1.023	0.172	C.2	1	DG1	0.743	
14	  N2	2.476	0.111	0.344	N.pl3	1	DG1	-0.923	
15	  N3	1.811	2.321	0.149	N.2	1	DG1	-0.664	
16	  C4	0.709	3.095	-0.035	C.2	1	DG1	0.181	
17	  C5	-0.599	2.700	-0.190	C.2	1	DG1	0.199	
18	  C6	-0.914	1.317	-0.165	C.2	1	DG1	0.492	
19	  O6	-2.010	0.775	-0.284	O.2	1	DG1	-0.570	
20	  N7	-1.430	3.807	-0.354	N.2	1	DG1	-0.572	
21	  C8	-0.606	4.826	-0.294	C.2	1	DG1	0.074	
22	  N9	0.711	4.472	-0.101	N.pl3	1	DG1	0.058	
23	  H1	0.111	-0.469	0.057	 H	1	DG1	0.352	
24	  H8	-0.934	5.861	-0.389	 H	1	DG1	0.200	
25	 H1'	2.762	4.737	-0.298	 H	1	DG1	0.175	
26	 H21	3.436	0.404	0.458	 H	1	DG1	0.424	
27	 H3'	2.938	8.438	-0.347	 H	1	DG1	0.098	
28	 H22	2.242	-0.871	0.360	 H	1	DG1	0.424	
29	 H4'	3.682	7.016	1.876	 H	1	DG1	0.118	
30	H2'1	1.969	6.459	-1.924	 H	1	DG1	0.072	
31	H2'2	0.881	7.097	-0.793	 H	1	DG1	0.072	
32	H5'1	1.466	7.698	2.965	 H	1	DG1	0.075	
33	H5'2	2.760	8.851	2.545	 H	1	DG1	0.075	
34	   P	5.267	7.619	0.426	P.3	2	POS1	1.166	
35	 O1P	5.089	9.059	0.008	O.co2	2	POS1	-0.776	
36	 O2P	4.851	7.218	1.819	O.co2	2	POS1	-0.776	
37	 O01	6.690	7.350	0.338	 O	2	POS1	1.180	
38	 C10	7.386	8.137	1.308	C.3	2	POS1	-4.268	
39	 C11	8.899	7.861	1.203	C.3	2	POS1	0.083	
40	 C12	9.634	8.677	2.300	C.3	2	POS1	-3.391	
41	 C13	11.152	8.402	2.319	C.3	2	POS1	0.175	
42	 C14	11.824	9.272	3.407	C.3	2	POS1	-0.398	
43	 C15	13.334	8.980	3.527	C.3	2	POS1	-7.531	
44	 C16	15.223	9.866	4.705	C.2	2	POS1	0.597	
45	 C17	15.827	10.736	5.785	C.3	2	POS1	-0.366	
46	 O98	15.940	9.195	3.951	O.2	2	POS1	-0.568	
47	 N99	13.941	9.822	4.567	N.pl3	2	POS1	2.842	
48	 H11	13.352	10.369	5.178	 H	2	POS1	-0.344	
49	 H12	13.818	9.167	2.566	 H	2	POS1	2.032	
50	 H13	13.481	7.921	3.784	 H	2	POS1	2.032	
51	 H14	11.680	10.328	3.162	 H	2	POS1	0.695	
52	 H15	11.348	9.085	4.373	 H	2	POS1	0.695	
53	 H16	11.593	8.625	1.353	 H	2	POS1	0.506	
54	 H17	11.334	7.345	2.536	 H	2	POS1	0.506	
55	 H18	9.458	9.736	2.137	 H	2	POS1	1.060	
56	 H19	9.222	8.423	3.277	 H	2	POS1	1.060	
57	 H21	9.018	6.801	1.425	 H	2	POS1	0.461	
58	 H22	9.295	8.130	0.225	 H	2	POS1	0.461	
59	 H23	7.038	7.875	2.307	 H	2	POS1	1.419	
60	 H24	7.196	9.194	1.123	 H	2	POS1	1.419	
61	 H95	16.402	10.130	6.470	 H	2	POS1	0.112	
62	 H96	15.045	11.240	6.334	 H	2	POS1	0.112	
63	 H97	16.477	11.478	5.343	 H	2	POS1	0.112	
@<TRIPOS>BOND
1 1 2 2
2 1 3 1
3 1 5 1
4 4 5 1
5 4 6 1
6 4 32 1
7 4 33 1
8 6 7 1
9 6 8 1
10 6 29 1
11 7 11 1
12 8 9 1
13 8 10 1
14 8 27 1
15 10 11 1
16 10 30 1
17 10 31 1
18 11 22 1
19 11 25 1
20 12 13 1
21 12 18 1
22 12 23 1
23 13 14 1
24 13 15 2
25 14 26 1
26 14 28 1
27 15 16 1
28 16 17 2
29 16 22 1
30 17 18 1
31 17 20 1
32 18 19 2
33 20 21 2
34 21 22 1
35 21 24 1
36 9 34 1
37 34 35 1
38 34 36 1
39 34 37 1
40 37 38 1
41 38 39 1
42 38 59 1
43 38 60 1
44 39 40 1
45 39 57 1
46 39 58 1
47 40 41 1
48 40 55 1
49 40 56 1
50 41 42 1
51 41 53 1
52 41 54 1
53 42 43 1
54 42 51 1
55 42 52 1
56 43 47 1
57 43 49 1
58 43 50 1
59 44 45 1
60 44 46 2
61 44 47 1
62 45 61 1
63 45 62 1
64 45 63 1
65 47 48 1
@<TRIPOS>SUBSTRUCTURE
1	DG1	1	RESIDUE	1 ****	DG
2	POS1	34	GROUP	1 ****	POS
