# created with PyMOL 2.3.3
@<TRIPOS>MOLECULE
DGP
60 62 2                 
SMALL
USER_CHARGES
@<TRIPOS>ATOM
1	   P	-0.356	9.218	1.848	P.3	1	DG1	1.166	
2	 O1P	-0.311	10.489	2.605	O.co2	1	DG1	-0.776	
3	 O2P	-1.334	9.156	0.740	O.co2	1	DG1	-0.776	
4	 C5'	2.021	8.156	2.146	C.3	1	DG1	-0.007	
5	 O5'	1.105	8.869	1.295	O.3	1	DG1	-0.495	
6	 C4'	2.726	7.072	1.355	C.3	1	DG1	0.163	
7	 O4'	1.986	5.817	1.352	O.3	1	DG1	-0.369	
8	 C3'	2.952	7.370	-0.127	C.3	1	DG1	0.071	
9	 O3'	4.210	6.832	-0.518	 O	1	DG1	-0.523	
10	 C2'	1.848	6.598	-0.850	C.3	1	DG1	-0.085	
11	 C1'	1.913	5.344	0.016	C.3	1	DG1	0.036	
12	  N1	0.233	0.533	0.025	N.pl3	1	DG1	-0.505	
13	  C2	1.516	1.023	0.172	C.2	1	DG1	0.743	
14	  N2	2.476	0.111	0.344	N.pl3	1	DG1	-0.923	
15	  N3	1.811	2.321	0.149	N.2	1	DG1	-0.664	
16	  C4	0.709	3.095	-0.035	C.2	1	DG1	0.181	
17	  C5	-0.599	2.700	-0.190	C.2	1	DG1	0.199	
18	  C6	-0.914	1.317	-0.165	C.2	1	DG1	0.492	
19	  O6	-2.010	0.775	-0.284	O.2	1	DG1	-0.570	
20	  N7	-1.430	3.807	-0.354	N.2	1	DG1	-0.572	
21	  C8	-0.606	4.826	-0.294	C.2	1	DG1	0.074	
22	  N9	0.711	4.472	-0.101	N.pl3	1	DG1	0.058	
23	  H1	0.111	-0.469	0.057	 H	1	DG1	0.352	
24	  H8	-0.934	5.861	-0.389	 H	1	DG1	0.200	
25	 H1'	2.762	4.737	-0.298	 H	1	DG1	0.175	
26	 H21	3.436	0.404	0.458	 H	1	DG1	0.424	
27	 H3'	2.938	8.438	-0.347	 H	1	DG1	0.098	
28	 H22	2.242	-0.871	0.360	 H	1	DG1	0.424	
29	 H4'	3.682	7.016	1.876	 H	1	DG1	0.118	
30	H2'1	1.969	6.459	-1.924	 H	1	DG1	0.072	
31	H2'2	0.881	7.097	-0.793	 H	1	DG1	0.072	
32	H5'1	1.466	7.698	2.965	 H	1	DG1	0.075	
33	H5'2	2.760	8.851	2.545	 H	1	DG1	0.075	
34	 O01	-0.988	8.274	2.870	O.3	2	POS1	1.180	
35	 C10	-2.307	8.710	3.209	C.3	2	POS1	-4.268	
36	 C11	-2.914	7.750	4.250	C.3	2	POS1	0.083	
37	 C12	-4.365	8.202	4.563	C.3	2	POS1	-3.391	
38	 C13	-5.080	7.250	5.543	C.3	2	POS1	0.175	
39	 C14	-6.503	7.779	5.838	C.3	2	POS1	-0.398	
40	 C15	-7.296	6.822	6.752	C.3	2	POS1	-7.531	
41	 C16	-9.401	6.801	7.896	C.2	2	POS1	0.597	
42	 C17	-10.784	7.361	8.145	C.3	2	POS1	-0.366	
43	 O98	-8.988	5.820	8.527	O.2	2	POS1	-0.568	
44	 N99	-8.641	7.354	7.012	N.pl3	2	POS1	2.842	
45	 H11	-8.972	8.157	6.497	 H	2	POS1	-0.344	
46	 H12	-6.759	6.689	7.694	 H	2	POS1	2.032	
47	 H13	-7.381	5.840	6.265	 H	2	POS1	2.032	
48	 H14	-6.429	8.758	6.320	 H	2	POS1	0.695	
49	 H15	-7.049	7.908	4.900	 H	2	POS1	0.695	
50	 H16	-4.524	7.169	6.471	 H	2	POS1	0.506	
51	 H17	-5.149	6.249	5.104	 H	2	POS1	0.506	
52	 H18	-4.346	9.206	4.979	 H	2	POS1	1.060	
53	 H19	-4.938	8.244	3.637	 H	2	POS1	1.060	
54	 H21	-2.955	6.777	3.761	 H	2	POS1	0.461	
55	 H22	-2.334	7.729	5.172	 H	2	POS1	0.461	
56	 H23	-2.929	8.715	2.314	 H	2	POS1	1.419	
57	 H24	-2.261	9.716	3.625	 H	2	POS1	1.419	
58	 H95	-11.531	6.609	7.941	 H	2	POS1	0.112	
59	 H96	-10.959	8.212	7.502	 H	2	POS1	0.112	
60	 H97	-10.876	7.677	9.174	 H	2	POS1	0.112	
@<TRIPOS>BOND
1 1 2 2
2 1 3 1
3 1 5 1
4 1 34 1
5 4 5 1
6 4 6 1
7 4 32 1
8 4 33 1
9 6 7 1
10 6 8 1
11 6 29 1
12 7 11 1
13 8 9 1
14 8 10 1
15 8 27 1
16 10 11 1
17 10 30 1
18 10 31 1
19 11 22 1
20 11 25 1
21 12 13 1
22 12 18 1
23 12 23 1
24 13 14 1
25 13 15 2
26 14 26 1
27 14 28 1
28 15 16 1
29 16 17 2
30 16 22 1
31 17 18 1
32 17 20 1
33 18 19 2
34 20 21 2
35 21 22 1
36 21 24 1
37 34 35 1
38 35 36 1
39 35 56 1
40 35 57 1
41 36 37 1
42 36 54 1
43 36 55 1
44 37 38 1
45 37 52 1
46 37 53 1
47 38 39 1
48 38 50 1
49 38 51 1
50 39 40 1
51 39 48 1
52 39 49 1
53 40 44 1
54 40 46 1
55 40 47 1
56 41 42 1
57 41 43 2
58 41 44 1
59 42 58 1
60 42 59 1
61 42 60 1
62 44 45 1
@<TRIPOS>SUBSTRUCTURE
1	DG1	1	RESIDUE	1 ****	DG
2	POS1	34	GROUP	1 ****	POS
