# created with PyMOL 2.3.3
@<TRIPOS>MOLECULE
DTM
57 58 2                 
SMALL
USER_CHARGES
@<TRIPOS>ATOM
1	   P	21.114	48.538	19.199	 P	1	DT1	1.166	
2	 O1P	20.695	47.542	18.188	O.2	1	DT1	-0.776	
3	 O2P	22.139	49.513	18.764	 O	1	DT1	-0.776	
4	 C5'	19.083	48.749	20.841	C.3	1	DT1	-0.007	
5	 O5'	19.830	49.319	19.750	O.3	1	DT1	-0.495	
6	 C4'	18.733	49.827	21.848	C.3	1	DT1	0.163	
7	 O4'	19.774	50.007	22.851	O.3	1	DT1	-0.369	
8	 C3'	18.526	51.229	21.276	C.3	1	DT1	0.071	
9	 O3'	17.477	51.868	21.995	 O	1	DT1	-0.523	
10	 C2'	19.834	51.964	21.570	C.3	1	DT1	-0.085	
11	 C1'	20.047	51.395	22.969	C.3	1	DT1	0.068	
12	  N1	21.439	51.551	23.474	N.pl3	1	DT1	-0.024	
13	  C2	21.595	51.770	24.821	C.2	1	DT1	0.568	
14	  O2	20.656	51.838	25.595	O.2	1	DT1	-0.588	
15	  N3	22.899	51.911	25.253	N.pl3	1	DT1	-0.434	
16	  C4	24.032	51.852	24.467	C.2	1	DT1	0.519	
17	  O4	25.150	51.994	24.968	O.2	1	DT1	-0.556	
18	  C5	23.767	51.619	23.067	C.2	1	DT1	0.002	
19	  C6	22.508	51.479	22.620	C.2	1	DT1	-0.221	
20	  C7	24.945	51.542	22.141	C.2	1	DT1	-0.227	
21	  H3	23.038	52.073	26.240	 H	1	DT1	0.342	
22	  H6	22.334	51.304	21.558	 H	1	DT1	0.261	
23	 H1'	19.405	51.926	23.672	 H	1	DT1	0.180	
24	 H3'	18.274	51.217	20.215	 H	1	DT1	0.098	
25	 H4'	17.796	49.444	22.252	 H	1	DT1	0.118	
26	 H73	24.785	51.288	21.093	 H	1	DT1	0.077	
27	H2'1	19.817	53.050	21.480	 H	1	DT1	0.072	
28	H2'2	20.632	51.692	20.880	 H	1	DT1	0.072	
29	H5'1	19.689	47.986	21.329	 H	1	DT1	0.075	
30	H5'2	18.166	48.302	20.456	 H	1	DT1	0.075	
31	  C8	26.279	51.963	22.760	C.2	2	DTM1	0.173	
32	  C9	27.452	51.973	21.762	C.2	2	DTM1	0.626	
33	 C10	29.669	52.217	20.877	C.3	2	DTM1	0.299	
34	 C11	31.139	52.511	21.231	C.3	2	DTM1	-0.065	
35	 C12	31.986	52.470	19.932	C.3	2	DTM1	-0.044	
36	 C13	33.465	52.831	20.181	C.3	2	DTM1	0.041	
37	 C14	34.255	52.735	18.854	C.3	2	DTM1	0.049	
38	 C15	35.726	53.163	19.028	C.3	2	DTM1	0.052	
39	 N98	28.845	52.309	22.091	N.pl3	2	DTM1	-0.837	
40	 N99	36.447	53.060	17.752	N.pl3	2	DTM1	-0.481	
41	 O99	27.167	51.676	20.392	O.2	2	DTM1	-0.554	
42	 H01	37.434	53.270	17.710	 H	2	DTM1	0.000	
43	 H11	35.954	52.779	16.917	 H	2	DTM1	0.274	
44	 H12	36.204	52.530	19.779	 H	2	DTM1	0.047	
45	 H13	35.764	54.203	19.384	 H	2	DTM1	0.047	
46	 H14	34.221	51.704	18.490	 H	2	DTM1	0.012	
47	 H15	33.786	53.372	18.101	 H	2	DTM1	0.012	
48	 H16	33.903	52.160	20.913	 H	2	DTM1	-0.011	
49	 H17	33.537	53.850	20.573	 H	2	DTM1	-0.011	
50	 H18	31.922	51.479	19.493	 H	2	DTM1	-0.005	
51	 H19	31.573	53.174	19.208	 H	2	DTM1	-0.005	
52	 H21	31.148	53.531	21.616	 H	2	DTM1	0.037	
53	 H22	31.538	51.792	21.946	 H	2	DTM1	0.037	
54	 H23	29.319	52.945	20.145	 H	2	DTM1	0.024	
55	 H24	29.590	51.214	20.457	 H	2	DTM1	0.024	
56	 H71	26.579	52.180	23.785	 H	2	DTM1	0.017	
57	 H98	29.176	52.597	22.999	 H	2	DTM1	0.395	
@<TRIPOS>BOND
1 1 2 2
2 1 3 1
3 1 5 1
4 4 5 1
5 4 6 1
6 4 29 1
7 4 30 1
8 6 7 1
9 6 8 1
10 6 25 1
11 7 11 1
12 8 9 1
13 8 10 1
14 8 24 1
15 10 11 1
16 10 27 1
17 10 28 1
18 11 12 1
19 11 23 1
20 12 13 1
21 12 19 1
22 13 14 2
23 13 15 1
24 15 16 1
25 15 21 1
26 16 17 2
27 16 18 1
28 18 19 2
29 18 20 1
30 19 22 1
31 20 26 1
32 20 31 2
33 31 32 1
34 31 56 1
35 32 39 1
36 32 41 2
37 33 34 1
38 33 39 1
39 33 54 1
40 33 55 1
41 34 35 1
42 34 52 1
43 34 53 1
44 35 36 1
45 35 50 1
46 35 51 1
47 36 37 1
48 36 48 1
49 36 49 1
50 37 38 1
51 37 46 1
52 37 47 1
53 38 40 1
54 38 44 1
55 38 45 1
56 39 57 1
57 40 42 1
58 40 43 1
@<TRIPOS>SUBSTRUCTURE
1	DT1	1	RESIDUE	1 ****	DT
2	DTM1	31	GROUP	1 ****	DTM
