# created with PyMOL 2.3.3
@<TRIPOS>MOLECULE
DTM
62 63 2                 
SMALL
USER_CHARGES
@<TRIPOS>ATOM
1	   P	21.114	48.538	19.199	 P	1	DT1	1.166	
2	 O1P	20.695	47.542	18.188	O.2	1	DT1	-0.776	
3	 O2P	22.139	49.513	18.764	 O	1	DT1	-0.776	
4	 C5'	19.083	48.749	20.841	C.3	1	DT1	-0.007	
5	 O5'	19.830	49.319	19.750	O.3	1	DT1	-0.495	
6	 C4'	18.733	49.827	21.848	C.3	1	DT1	0.163	
7	 O4'	19.774	50.007	22.851	O.3	1	DT1	-0.369	
8	 C3'	18.526	51.229	21.276	C.3	1	DT1	0.071	
9	 O3'	17.477	51.868	21.995	 O	1	DT1	-0.523	
10	 C2'	19.834	51.964	21.570	C.3	1	DT1	-0.085	
11	 C1'	20.047	51.395	22.969	C.3	1	DT1	0.068	
12	  N1	21.439	51.551	23.474	N.pl3	1	DT1	-0.024	
13	  C2	21.595	51.770	24.821	C.2	1	DT1	0.568	
14	  O2	20.656	51.838	25.595	O.2	1	DT1	-0.588	
15	  N3	22.899	51.911	25.253	N.pl3	1	DT1	-0.434	
16	  C4	24.032	51.852	24.467	C.2	1	DT1	0.519	
17	  O4	25.150	51.994	24.968	O.2	1	DT1	-0.556	
18	  C5	23.767	51.619	23.067	C.2	1	DT1	0.002	
19	  C6	22.508	51.479	22.620	C.2	1	DT1	-0.221	
20	  C7	24.945	51.542	22.141	C.2	1	DT1	-0.227	
21	  H3	23.038	52.073	26.240	 H	1	DT1	0.342	
22	  H6	22.334	51.304	21.558	 H	1	DT1	0.261	
23	 H1'	19.405	51.926	23.672	 H	1	DT1	0.180	
24	 H3'	18.274	51.217	20.215	 H	1	DT1	0.098	
25	 H4'	17.796	49.444	22.252	 H	1	DT1	0.118	
26	 H73	25.410	52.524	22.061	 H	1	DT1	0.077	
27	H2'1	19.817	53.050	21.480	 H	1	DT1	0.072	
28	H2'2	20.632	51.692	20.880	 H	1	DT1	0.072	
29	H5'1	19.689	47.986	21.329	 H	1	DT1	0.075	
30	H5'2	18.166	48.302	20.456	 H	1	DT1	0.075	
31	  C8	24.475	51.080	20.749	C.2	2	DTM1	0.173	
32	  C9	23.024	51.362	20.318	C.2	2	DTM1	0.626	
33	 C10	21.005	51.343	19.018	C.3	2	DTM1	0.299	
34	 C11	20.337	50.788	17.745	C.3	2	DTM1	-0.065	
35	 C12	18.866	51.280	17.695	C.3	2	DTM1	-0.044	
36	 C13	18.139	50.834	16.410	C.3	2	DTM1	0.041	
37	 C14	16.673	51.326	16.444	C.3	2	DTM1	0.049	
38	 C15	15.918	50.977	15.145	C.3	2	DTM1	0.052	
39	 C16	13.678	51.112	14.305	C.2	2	DTM1	0.597	
40	 C17	12.256	51.621	14.389	C.3	2	DTM1	-0.366	
41	 N98	22.416	50.932	19.049	N.pl3	2	DTM1	-0.837	
42	 O98	14.036	50.369	13.382	O.2	2	DTM1	-0.568	
43	 N99	14.531	51.457	15.210	N.pl3	2	DTM1	-0.481	
44	 O99	22.059	52.085	21.087	O.2	2	DTM1	-0.554	
45	 H11	14.243	52.060	15.967	 H	2	DTM1	0.274	
46	 H12	15.932	49.895	14.995	 H	2	DTM1	0.047	
47	 H13	16.426	51.447	14.290	 H	2	DTM1	0.047	
48	 H14	16.160	50.866	17.293	 H	2	DTM1	0.012	
49	 H15	16.652	52.409	16.587	 H	2	DTM1	0.012	
50	 H16	18.157	49.753	16.317	 H	2	DTM1	-0.011	
51	 H17	18.643	51.255	15.534	 H	2	DTM1	-0.011	
52	 H18	18.333	50.905	18.564	 H	2	DTM1	-0.005	
53	 H19	18.847	52.369	17.746	 H	2	DTM1	-0.005	
54	 H21	20.878	51.237	16.912	 H	2	DTM1	0.037	
55	 H22	20.356	49.699	17.716	 H	2	DTM1	0.037	
56	 H23	20.944	52.431	19.015	 H	2	DTM1	0.024	
57	 H24	20.492	50.953	19.897	 H	2	DTM1	0.024	
58	 H71	25.179	50.563	20.097	 H	2	DTM1	0.017	
59	 H95	12.016	52.196	13.507	 H	2	DTM1	0.112	
60	 H96	12.139	52.250	15.260	 H	2	DTM1	0.112	
61	 H97	11.569	50.790	14.464	 H	2	DTM1	0.112	
62	 H98	22.894	50.432	18.314	 H	2	DTM1	0.395	
@<TRIPOS>BOND
1 1 2 2
2 1 3 1
3 1 5 1
4 4 5 1
5 4 6 1
6 4 29 1
7 4 30 1
8 6 7 1
9 6 8 1
10 6 25 1
11 7 11 1
12 8 9 1
13 8 10 1
14 8 24 1
15 10 11 1
16 10 27 1
17 10 28 1
18 11 12 1
19 11 23 1
20 12 13 1
21 12 19 1
22 13 14 2
23 13 15 1
24 15 16 1
25 15 21 1
26 16 17 2
27 16 18 1
28 18 19 2
29 18 20 1
30 19 22 1
31 20 26 1
32 31 32 1
33 31 58 1
34 32 41 1
35 32 44 2
36 33 34 1
37 33 41 1
38 33 56 1
39 33 57 1
40 34 35 1
41 34 54 1
42 34 55 1
43 35 36 1
44 35 52 1
45 35 53 1
46 36 37 1
47 36 50 1
48 36 51 1
49 37 38 1
50 37 48 1
51 37 49 1
52 38 43 1
53 38 46 1
54 38 47 1
55 39 40 1
56 39 42 2
57 39 43 1
58 40 59 1
59 40 60 1
60 40 61 1
61 41 62 1
62 43 45 1
63 20 31 2
@<TRIPOS>SUBSTRUCTURE
1	DT1	1	GROUP	1 ****	DT
2	DTM1	31	GROUP	1 ****	DTM
