# created with PyMOL 2.3.3
@<TRIPOS>MOLECULE
DTO
62 63 2                 
SMALL
USER_CHARGES
@<TRIPOS>ATOM
1	   P	-0.356	9.218	1.848	 P	1	DT1	1.166	
2	 O1P	-0.311	10.489	2.605	O.2	1	DT1	-0.776	
3	 O2P	-1.334	9.156	0.740	 O	1	DT1	-0.776	
4	 C5'	2.021	8.156	2.146	C.3	1	DT1	-0.007	
5	 O5'	1.105	8.869	1.295	O.3	1	DT1	-0.495	
6	 C4'	2.726	7.072	1.355	C.3	1	DT1	0.163	
7	 O4'	1.986	5.817	1.352	O.3	1	DT1	-0.369	
8	 C3'	2.952	7.370	-0.127	C.3	1	DT1	0.071	
9	 O3'	4.210	6.832	-0.518	 O	1	DT1	-0.523	
10	 C2'	1.848	6.598	-0.850	C.3	1	DT1	-0.085	
11	 C1'	1.913	5.344	0.016	C.3	1	DT1	0.068	
12	  N1	0.711	4.472	-0.101	N.pl3	1	DT1	-0.024	
13	  C2	0.911	3.116	-0.009	C.2	1	DT1	0.568	
14	  O2	2.010	2.617	0.161	O.2	1	DT1	-0.588	
15	  N3	-0.226	2.339	-0.123	N.pl3	1	DT1	-0.434	
16	  C4	-1.513	2.797	-0.316	C.2	1	DT1	0.519	
17	  O4	-2.454	2.004	-0.403	O.2	1	DT1	-0.556	
18	  C5	-1.622	4.234	-0.400	C.2	1	DT1	0.002	
19	  C6	-0.533	5.013	-0.293	C.2	1	DT1	-0.221	
20	  C7	-2.989	4.816	-0.610	C.3	1	DT1	-0.227	
21	  H3	-0.103	1.339	-0.059	 H	1	DT1	0.342	
22	  H6	-0.641	6.096	-0.360	 H	1	DT1	0.261	
23	 H1'	2.762	4.737	-0.298	 H	1	DT1	0.180	
24	 H3'	2.938	8.438	-0.347	 H	1	DT1	0.098	
25	 H4'	3.682	7.016	1.876	 H	1	DT1	0.118	
26	 H71	-3.675	4.406	0.131	 H	1	DT1	0.077	
27	 H72	-2.944	5.900	-0.502	 H	1	DT1	0.077	
28	 H73	-3.342	4.564	-1.610	 H	1	DT1	0.077	
29	H2'1	1.969	6.459	-1.924	 H	1	DT1	0.072	
30	H2'2	0.881	7.097	-0.793	 H	1	DT1	0.072	
31	H5'1	1.466	7.698	2.965	 H	1	DT1	0.075	
32	H5'2	2.760	8.851	2.545	 H	1	DT1	0.075	
33	   P	5.267	7.619	0.426	P.3	2	POS1	1.166	
34	 O1P	5.089	9.059	0.008	O.co2	2	POS1	-0.776	
35	 O2P	4.851	7.218	1.819	O.co2	2	POS1	-0.776	
36	 O01	6.690	7.350	0.338	 O	2	POS1	1.180	
37	 C10	7.386	8.137	1.308	C.3	2	POS1	-4.268	
38	 C11	8.899	7.861	1.203	C.3	2	POS1	0.083	
39	 C12	9.634	8.677	2.300	C.3	2	POS1	-3.391	
40	 C13	11.152	8.402	2.319	C.3	2	POS1	0.175	
41	 C14	11.824	9.272	3.407	C.3	2	POS1	-0.398	
42	 C15	13.334	8.980	3.527	C.3	2	POS1	-7.531	
43	 C16	15.223	9.866	4.705	C.2	2	POS1	0.597	
44	 C17	15.827	10.736	5.785	C.3	2	POS1	-0.366	
45	 O98	15.940	9.195	3.951	O.2	2	POS1	-0.568	
46	 N99	13.941	9.822	4.567	N.pl3	2	POS1	2.842	
47	 H11	13.352	10.369	5.178	 H	2	POS1	-0.344	
48	 H12	13.818	9.167	2.566	 H	2	POS1	2.032	
49	 H13	13.481	7.921	3.784	 H	2	POS1	2.032	
50	 H14	11.680	10.328	3.162	 H	2	POS1	0.695	
51	 H15	11.348	9.085	4.373	 H	2	POS1	0.695	
52	 H16	11.593	8.625	1.353	 H	2	POS1	0.506	
53	 H17	11.334	7.345	2.536	 H	2	POS1	0.506	
54	 H18	9.458	9.736	2.137	 H	2	POS1	1.060	
55	 H19	9.222	8.423	3.277	 H	2	POS1	1.060	
56	 H21	9.018	6.801	1.425	 H	2	POS1	0.461	
57	 H22	9.295	8.130	0.225	 H	2	POS1	0.461	
58	 H23	7.038	7.875	2.307	 H	2	POS1	1.419	
59	 H24	7.196	9.194	1.123	 H	2	POS1	1.419	
60	 H95	16.402	10.130	6.470	 H	2	POS1	0.112	
61	 H96	15.045	11.240	6.334	 H	2	POS1	0.112	
62	 H97	16.477	11.478	5.343	 H	2	POS1	0.112	
@<TRIPOS>BOND
1 1 2 2
2 1 3 1
3 1 5 1
4 4 5 1
5 4 6 1
6 4 31 1
7 4 32 1
8 6 7 1
9 6 8 1
10 6 25 1
11 7 11 1
12 8 9 1
13 8 10 1
14 8 24 1
15 10 11 1
16 10 29 1
17 10 30 1
18 11 12 1
19 11 23 1
20 12 13 1
21 12 19 1
22 13 14 2
23 13 15 1
24 15 16 1
25 15 21 1
26 16 17 2
27 16 18 1
28 18 19 2
29 18 20 1
30 19 22 1
31 20 26 1
32 20 27 1
33 20 28 1
34 9 33 1
35 33 34 1
36 33 35 1
37 33 36 1
38 36 37 1
39 37 38 1
40 37 58 1
41 37 59 1
42 38 39 1
43 38 56 1
44 38 57 1
45 39 40 1
46 39 54 1
47 39 55 1
48 40 41 1
49 40 52 1
50 40 53 1
51 41 42 1
52 41 50 1
53 41 51 1
54 42 46 1
55 42 48 1
56 42 49 1
57 43 44 1
58 43 45 2
59 43 46 1
60 44 60 1
61 44 61 1
62 44 62 1
63 46 47 1
@<TRIPOS>SUBSTRUCTURE
1	DT1	1	RESIDUE	1 ****	DT
2	POS1	33	GROUP	1 ****	POS
