# created with PyMOL 2.3.3
@<TRIPOS>MOLECULE
DTP
59 60 2                 
SMALL
USER_CHARGES
@<TRIPOS>ATOM
1	   P	-0.356	9.218	1.848	P.3	1	DT1	1.166	
2	 O1P	-0.311	10.489	2.605	O.co2	1	DT1	-0.776	
3	 O2P	-1.334	9.156	0.740	O.co2	1	DT1	-0.776	
4	 C5'	2.021	8.156	2.146	C.3	1	DT1	-0.007	
5	 O5'	1.105	8.869	1.295	O.3	1	DT1	-0.495	
6	 C4'	2.726	7.072	1.355	C.3	1	DT1	0.163	
7	 O4'	1.986	5.817	1.352	O.3	1	DT1	-0.369	
8	 C3'	2.952	7.370	-0.127	C.3	1	DT1	0.071	
9	 O3'	4.210	6.832	-0.518	 O	1	DT1	-0.523	
10	 C2'	1.848	6.598	-0.850	C.3	1	DT1	-0.085	
11	 C1'	1.913	5.344	0.016	C.3	1	DT1	0.068	
12	  N1	0.711	4.472	-0.101	N.pl3	1	DT1	-0.024	
13	  C2	0.911	3.116	-0.009	C.2	1	DT1	0.568	
14	  O2	2.010	2.617	0.161	O.2	1	DT1	-0.588	
15	  N3	-0.226	2.339	-0.123	N.pl3	1	DT1	-0.434	
16	  C4	-1.513	2.797	-0.316	C.2	1	DT1	0.519	
17	  O4	-2.454	2.004	-0.403	O.2	1	DT1	-0.556	
18	  C5	-1.622	4.234	-0.400	C.2	1	DT1	0.002	
19	  C6	-0.533	5.013	-0.293	C.2	1	DT1	-0.221	
20	  C7	-2.989	4.816	-0.610	C.3	1	DT1	-0.227	
21	  H3	-0.103	1.339	-0.059	 H	1	DT1	0.342	
22	  H6	-0.641	6.096	-0.360	 H	1	DT1	0.261	
23	 H1'	2.762	4.737	-0.298	 H	1	DT1	0.180	
24	 H3'	2.938	8.438	-0.347	 H	1	DT1	0.098	
25	 H4'	3.682	7.016	1.876	 H	1	DT1	0.118	
26	 H71	-3.675	4.406	0.131	 H	1	DT1	0.077	
27	 H72	-2.944	5.900	-0.502	 H	1	DT1	0.077	
28	 H73	-3.342	4.564	-1.610	 H	1	DT1	0.077	
29	H2'1	1.969	6.459	-1.924	 H	1	DT1	0.072	
30	H2'2	0.881	7.097	-0.793	 H	1	DT1	0.072	
31	H5'1	1.466	7.698	2.965	 H	1	DT1	0.075	
32	H5'2	2.760	8.851	2.545	 H	1	DT1	0.075	
33	 O01	-0.988	8.274	2.870	O.3	2	POS1	1.180	
34	 C10	-2.307	8.710	3.209	C.3	2	POS1	-4.268	
35	 C11	-2.914	7.750	4.250	C.3	2	POS1	0.083	
36	 C12	-4.365	8.202	4.563	C.3	2	POS1	-3.391	
37	 C13	-5.080	7.250	5.543	C.3	2	POS1	0.175	
38	 C14	-6.503	7.779	5.838	C.3	2	POS1	-0.398	
39	 C15	-7.296	6.822	6.752	C.3	2	POS1	-7.531	
40	 C16	-9.401	6.801	7.896	C.2	2	POS1	0.597	
41	 C17	-10.784	7.361	8.145	C.3	2	POS1	-0.366	
42	 O98	-8.988	5.820	8.527	O.2	2	POS1	-0.568	
43	 N99	-8.641	7.354	7.012	N.pl3	2	POS1	2.842	
44	 H11	-8.972	8.157	6.497	 H	2	POS1	-0.344	
45	 H12	-6.759	6.689	7.694	 H	2	POS1	2.032	
46	 H13	-7.381	5.840	6.265	 H	2	POS1	2.032	
47	 H14	-6.429	8.758	6.320	 H	2	POS1	0.695	
48	 H15	-7.049	7.908	4.900	 H	2	POS1	0.695	
49	 H16	-4.524	7.169	6.471	 H	2	POS1	0.506	
50	 H17	-5.149	6.249	5.104	 H	2	POS1	0.506	
51	 H18	-4.346	9.206	4.979	 H	2	POS1	1.060	
52	 H19	-4.938	8.244	3.637	 H	2	POS1	1.060	
53	 H21	-2.955	6.777	3.761	 H	2	POS1	0.461	
54	 H22	-2.334	7.729	5.172	 H	2	POS1	0.461	
55	 H23	-2.929	8.715	2.314	 H	2	POS1	1.419	
56	 H24	-2.261	9.716	3.625	 H	2	POS1	1.419	
57	 H95	-11.531	6.609	7.941	 H	2	POS1	0.112	
58	 H96	-10.959	8.212	7.502	 H	2	POS1	0.112	
59	 H97	-10.876	7.677	9.174	 H	2	POS1	0.112	
@<TRIPOS>BOND
1 1 2 2
2 1 3 1
3 1 5 1
4 1 33 1
5 4 5 1
6 4 6 1
7 4 31 1
8 4 32 1
9 6 7 1
10 6 8 1
11 6 25 1
12 7 11 1
13 8 9 1
14 8 10 1
15 8 24 1
16 10 11 1
17 10 29 1
18 10 30 1
19 11 12 1
20 11 23 1
21 12 13 1
22 12 19 1
23 13 14 2
24 13 15 1
25 15 16 1
26 15 21 1
27 16 17 2
28 16 18 1
29 18 19 2
30 18 20 1
31 19 22 1
32 20 26 1
33 20 27 1
34 20 28 1
35 33 34 1
36 34 35 1
37 34 55 1
38 34 56 1
39 35 36 1
40 35 53 1
41 35 54 1
42 36 37 1
43 36 51 1
44 36 52 1
45 37 38 1
46 37 49 1
47 37 50 1
48 38 39 1
49 38 47 1
50 38 48 1
51 39 43 1
52 39 45 1
53 39 46 1
54 40 41 1
55 40 42 2
56 40 43 1
57 41 57 1
58 41 58 1
59 41 59 1
60 43 44 1
@<TRIPOS>SUBSTRUCTURE
1	DT1	1	RESIDUE	1 ****	DT
2	POS1	33	GROUP	1 ****	POS
