# created with PyMOL 2.3.3
@<TRIPOS>MOLECULE
RGO
64 66 2                 
SMALL
USER_CHARGES
@<TRIPOS>ATOM
1	   P	6.493	7.034	-6.104	P.3	1	POS1	1.166	
2	 O1P	5.202	6.281	-6.321	O.co2	1	POS1	-0.776	
3	 O2P	6.503	8.178	-5.121	O.co2	1	POS1	-0.776	
4	 O01	6.845	7.605	-7.390	 O	1	POS1	1.180	
5	 C10	5.870	8.583	-7.761	C.3	1	POS1	-4.268	
6	 C11	6.236	9.179	-9.134	C.3	1	POS1	0.083	
7	 C12	5.203	10.279	-9.496	C.3	1	POS1	-3.391	
8	 C13	5.536	10.986	-10.825	C.3	1	POS1	0.175	
9	 C14	4.450	12.041	-11.140	C.3	1	POS1	-0.398	
10	 C15	4.774	12.837	-12.421	C.3	1	POS1	-7.531	
11	 C16	3.708	14.474	-13.809	C.2	1	POS1	0.597	
12	 C17	2.620	15.493	-14.065	C.3	1	POS1	-0.366	
13	 O98	4.584	14.249	-14.655	O.2	1	POS1	-0.568	
14	 N99	3.724	13.828	-12.691	N.pl3	1	POS1	2.842	
15	 H11	3.010	14.005	-12.000	 H	1	POS1	-0.344	
16	 H12	4.864	12.149	-13.265	 H	1	POS1	2.032	
17	 H13	5.737	13.353	-12.296	 H	1	POS1	2.032	
18	 H14	3.487	11.538	-11.264	 H	1	POS1	0.695	
19	 H15	4.359	12.737	-10.303	 H	1	POS1	0.695	
20	 H16	5.591	10.268	-11.637	 H	1	POS1	0.506	
21	 H17	6.510	11.481	-10.748	 H	1	POS1	0.506	
22	 H18	4.213	9.835	-9.557	 H	1	POS1	1.060	
23	 H19	5.176	11.025	-8.701	 H	1	POS1	1.060	
24	 H21	7.208	9.652	-8.997	 H	1	POS1	0.461	
25	 H22	6.248	8.421	-9.918	 H	1	POS1	0.461	
26	 H23	5.849	9.377	-7.015	 H	1	POS1	1.419	
27	 H24	4.888	8.114	-7.819	 H	1	POS1	1.419	
28	 H95	3.056	16.467	-14.228	 H	1	POS1	0.112	
29	 H96	1.954	15.545	-13.216	 H	1	POS1	0.112	
30	 H97	2.049	15.213	-14.939	 H	1	POS1	0.112	
31	   P	3.063	8.025	-4.135	 P	2	G1	1.166	
32	 O1P	3.223	8.856	-5.350	O.2	2	G1	-0.776	
33	 O2P	1.891	7.121	-4.118	 O	2	G1	-0.776	
34	 C5'	5.621	7.881	-3.587	C.3	2	G1	0.056	
35	 O5'	4.397	7.181	-3.881	O.3	2	G1	-0.499	
36	 C4'	6.718	6.889	-3.258	C.3	2	G1	0.106	
37	 O4'	6.486	6.363	-1.919	O.3	2	G1	-0.355	
38	 C3'	6.776	5.641	-4.140	C.3	2	G1	0.202	
39	 O3'	7.398	5.908	-5.390	 O	2	G1	-0.525	
40	 C2'	7.566	4.726	-3.208	C.3	2	G1	0.067	
41	 O2'	8.949	5.085	-3.166	O.3	2	G1	-0.614	
42	 C1'	6.874	5.000	-1.877	C.3	2	G1	0.019	
43	  N1	5.185	0.505	-0.172	N.pl3	2	G1	-0.479	
44	  C2	6.474	0.995	-0.248	C.2	2	G1	0.766	
45	  N2	7.438	0.180	0.188	N.pl3	2	G1	-0.967	
46	  N3	6.771	2.203	-0.722	N.2	2	G1	-0.632	
47	  C4	5.664	2.886	-1.117	C.2	2	G1	0.122	
48	  C5	4.351	2.483	-1.079	C.2	2	G1	0.174	
49	  C6	4.033	1.195	-0.574	C.2	2	G1	0.477	
50	  O6	2.932	0.661	-0.462	O.2	2	G1	-0.560	
51	  N7	3.516	3.480	-1.579	N.2	2	G1	-0.571	
52	  C8	4.342	4.447	-1.899	C.2	2	G1	0.137	
53	  N9	5.666	4.158	-1.647	N.pl3	2	G1	0.049	
54	HO'2	9.266	5.035	-2.261	 H	2	G1	0.419	
55	  H1	5.063	-0.425	0.203	 H	2	G1	0.342	
56	  H8	4.011	5.394	-2.326	 H	2	G1	0.164	
57	 H1'	7.560	4.764	-1.063	 H	2	G1	0.201	
58	 H21	8.403	0.478	0.160	 H	2	G1	0.436	
59	 H3'	5.823	5.221	-4.460	 H	2	G1	0.062	
60	 H22	7.203	-0.735	0.546	 H	2	G1	0.436	
61	 H4'	7.638	7.457	-3.394	 H	2	G1	0.117	
62	H2'1	7.570	3.677	-3.505	 H	2	G1	0.097	
63	H5'1	5.462	8.536	-2.730	 H	2	G1	0.068	
64	H5'2	5.916	8.473	-4.453	 H	2	G1	0.068	
@<TRIPOS>BOND
1 1 2 1
2 1 3 1
3 1 4 1
4 1 39 1
5 4 5 1
6 5 6 1
7 5 26 1
8 5 27 1
9 6 7 1
10 6 24 1
11 6 25 1
12 7 8 1
13 7 22 1
14 7 23 1
15 8 9 1
16 8 20 1
17 8 21 1
18 9 10 1
19 9 18 1
20 9 19 1
21 10 14 1
22 10 16 1
23 10 17 1
24 11 12 1
25 11 13 2
26 11 14 1
27 12 28 1
28 12 29 1
29 12 30 1
30 14 15 1
31 31 32 2
32 31 33 1
33 31 35 1
34 34 35 1
35 34 36 1
36 34 63 1
37 34 64 1
38 36 37 1
39 36 38 1
40 36 61 1
41 37 42 1
42 38 39 1
43 38 40 1
44 38 59 1
45 40 41 1
46 40 42 1
47 40 62 1
48 42 53 1
49 42 57 1
50 43 44 1
51 43 49 1
52 43 55 1
53 44 45 1
54 44 46 2
55 45 58 1
56 45 60 1
57 46 47 1
58 47 48 2
59 47 53 1
60 48 49 1
61 48 51 1
62 49 50 2
63 51 52 2
64 52 53 1
65 52 56 1
66 41 54 1
@<TRIPOS>SUBSTRUCTURE
1	POS1	1	GROUP	1 ****	POS
2	G1	31	RESIDUE	1 A	G
