# created with PyMOL 2.3.3
@<TRIPOS>MOLECULE
RUO
60 61 2                 
SMALL
USER_CHARGES
@<TRIPOS>ATOM
1	   P	6.494	7.035	-6.104	P.3	1	POS1	1.166	
2	 O1P	5.202	6.284	-6.321	O.co2	1	POS1	-0.776	
3	 O2P	6.505	8.179	-5.121	O.co2	1	POS1	-0.776	
4	 O01	6.845	7.606	-7.390	 O	1	POS1	1.180	
5	 C10	5.872	8.585	-7.761	C.3	1	POS1	-4.268	
6	 C11	6.238	9.181	-9.134	C.3	1	POS1	0.083	
7	 C12	5.206	10.282	-9.495	C.3	1	POS1	-3.391	
8	 C13	5.540	10.989	-10.824	C.3	1	POS1	0.175	
9	 C14	4.454	12.045	-11.139	C.3	1	POS1	-0.398	
10	 C15	4.779	12.841	-12.420	C.3	1	POS1	-7.531	
11	 C16	3.714	14.479	-13.807	C.2	1	POS1	0.597	
12	 C17	2.627	15.500	-14.063	C.3	1	POS1	-0.366	
13	 O98	4.589	14.254	-14.653	O.2	1	POS1	-0.568	
14	 N99	3.730	13.834	-12.690	N.pl3	1	POS1	2.842	
15	 H11	3.016	14.011	-11.998	 H	1	POS1	-0.344	
16	 H12	4.868	12.153	-13.263	 H	1	POS1	2.032	
17	 H13	5.743	13.356	-12.295	 H	1	POS1	2.032	
18	 H14	3.490	11.543	-11.262	 H	1	POS1	0.695	
19	 H15	4.364	12.741	-10.301	 H	1	POS1	0.695	
20	 H16	5.593	10.271	-11.636	 H	1	POS1	0.506	
21	 H17	6.514	11.482	-10.747	 H	1	POS1	0.506	
22	 H18	4.216	9.839	-9.556	 H	1	POS1	1.060	
23	 H19	5.180	11.028	-8.700	 H	1	POS1	1.060	
24	 H21	7.211	9.653	-8.997	 H	1	POS1	0.461	
25	 H22	6.248	8.423	-9.917	 H	1	POS1	0.461	
26	 H23	5.852	9.379	-7.014	 H	1	POS1	1.419	
27	 H24	4.889	8.117	-7.818	 H	1	POS1	1.419	
28	 H95	3.065	16.474	-14.226	 H	1	POS1	0.112	
29	 H96	1.962	15.552	-13.213	 H	1	POS1	0.112	
30	 H97	2.056	15.221	-14.937	 H	1	POS1	0.112	
31	   P	3.063	8.025	-4.135	 P	2	U1	1.166	
32	 O1P	3.223	8.856	-5.350	O.2	2	U1	-0.776	
33	 O2P	1.891	7.121	-4.118	 O	2	U1	-0.776	
34	 C5'	5.621	7.881	-3.587	C.3	2	U1	0.056	
35	 O5'	4.397	7.181	-3.881	O.3	2	U1	-0.499	
36	 C4'	6.719	6.889	-3.258	C.3	2	U1	0.106	
37	 O4'	6.486	6.364	-1.919	O.3	2	U1	-0.355	
38	 C3'	6.776	5.642	-4.140	C.3	2	U1	0.202	
39	 O3'	7.397	5.908	-5.390	 O	2	U1	-0.525	
40	 C2'	7.567	4.725	-3.208	C.3	2	U1	0.067	
41	 O2'	8.962	4.910	-3.068	O.3	2	U1	-0.614	
42	 C1'	6.874	4.999	-1.877	C.3	2	U1	0.067	
43	  N1	5.666	4.158	-1.647	N.pl3	2	U1	0.042	
44	  C2	5.867	2.911	-1.107	C.2	2	U1	0.469	
45	  O2	6.971	2.482	-0.819	O.2	2	U1	-0.548	
46	  N3	4.725	2.160	-0.908	N.pl3	2	U1	-0.355	
47	  C4	3.431	2.543	-1.197	C.2	2	U1	0.595	
48	  O4	2.487	1.783	-0.974	O.2	2	U1	-0.576	
49	  C5	3.322	3.869	-1.760	C.2	2	U1	-0.363	
50	  C6	4.416	4.621	-1.964	C.2	2	U1	-0.113	
51	HO'2	9.314	4.251	-2.464	 H	2	U1	0.419	
52	  H3	4.849	1.239	-0.512	 H	2	U1	0.315	
53	  H5	2.340	4.264	-2.022	 H	2	U1	0.181	
54	  H6	4.307	5.618	-2.390	 H	2	U1	0.219	
55	 H1'	7.559	4.762	-1.063	 H	2	U1	0.182	
56	 H3'	5.822	5.223	-4.460	 H	2	U1	0.062	
57	 H4'	7.640	7.456	-3.394	 H	2	U1	0.117	
58	H2'1	7.551	3.712	-3.610	 H	2	U1	0.097	
59	H5'1	5.462	8.536	-2.730	 H	2	U1	0.068	
60	H5'2	5.916	8.473	-4.453	 H	2	U1	0.068	
@<TRIPOS>BOND
1 1 2 1
2 1 3 1
3 1 4 1
4 1 39 1
5 4 5 1
6 5 6 1
7 5 26 1
8 5 27 1
9 6 7 1
10 6 24 1
11 6 25 1
12 7 8 1
13 7 22 1
14 7 23 1
15 8 9 1
16 8 20 1
17 8 21 1
18 9 10 1
19 9 18 1
20 9 19 1
21 10 14 1
22 10 16 1
23 10 17 1
24 11 12 1
25 11 13 2
26 11 14 1
27 12 28 1
28 12 29 1
29 12 30 1
30 14 15 1
31 31 32 2
32 31 33 1
33 31 35 1
34 34 35 1
35 34 36 1
36 34 59 1
37 34 60 1
38 36 37 1
39 36 38 1
40 36 57 1
41 37 42 1
42 38 39 1
43 38 40 1
44 38 56 1
45 40 41 1
46 40 42 1
47 40 58 1
48 41 51 1
49 42 43 1
50 42 55 1
51 43 44 1
52 43 50 1
53 44 45 2
54 44 46 1
55 46 47 1
56 46 52 1
57 47 48 2
58 47 49 1
59 49 50 2
60 49 53 1
61 50 54 1
@<TRIPOS>SUBSTRUCTURE
1	POS1	1	GROUP	1 ****	POS
2	U1	31	RESIDUE	1 A	U
