# created with PyMOL 2.3.3
@<TRIPOS>MOLECULE
RUP
57 58 2                 
SMALL
USER_CHARGES
@<TRIPOS>ATOM
1	 O01	2.659	9.073	-3.098	O.3	1	POS1	1.180	
2	 C10	1.420	9.687	-3.461	C.3	1	POS1	-4.268	
3	 C11	1.045	10.747	-2.407	C.3	1	POS1	0.083	
4	 C12	-0.329	11.363	-2.782	C.3	1	POS1	-3.391	
5	 C13	-0.822	12.385	-1.737	C.3	1	POS1	0.175	
6	 C14	-2.174	12.983	-2.191	C.3	1	POS1	-0.398	
7	 C15	-2.756	13.954	-1.143	C.3	1	POS1	-7.531	
8	 C16	-4.602	15.471	-0.962	C.2	1	POS1	0.597	
9	 C17	-5.923	16.020	-1.453	C.3	1	POS1	-0.366	
10	 O98	-4.053	15.934	0.046	O.2	1	POS1	-0.568	
11	 N99	-4.037	14.504	-1.605	N.pl3	1	POS1	2.842	
12	 H11	-4.479	14.125	-2.430	 H	1	POS1	-0.344	
13	 H12	-2.045	14.764	-0.962	 H	1	POS1	2.032	
14	 H13	-2.910	13.418	-0.195	 H	1	POS1	2.032	
15	 H14	-2.031	13.517	-3.135	 H	1	POS1	0.695	
16	 H15	-2.892	12.179	-2.367	 H	1	POS1	0.695	
17	 H16	-0.097	13.181	-1.610	 H	1	POS1	0.506	
18	 H17	-0.951	11.890	-0.768	 H	1	POS1	0.506	
19	 H18	-0.253	11.844	-3.753	 H	1	POS1	1.060	
20	 H19	-1.070	10.568	-2.869	 H	1	POS1	1.060	
21	 H21	0.932	10.201	-1.470	 H	1	POS1	0.461	
22	 H22	1.791	11.539	-2.341	 H	1	POS1	0.461	
23	 H23	0.638	8.930	-3.507	 H	1	POS1	1.419	
24	 H24	1.522	10.164	-4.435	 H	1	POS1	1.419	
25	 H95	-6.678	15.903	-0.690	 H	1	POS1	0.112	
26	 H96	-6.237	15.489	-2.341	 H	1	POS1	0.112	
27	 H97	-5.823	17.069	-1.690	 H	1	POS1	0.112	
28	   P	3.063	8.025	-4.135	P.3	2	U1	1.166	
29	 O1P	3.223	8.856	-5.350	O.co2	2	U1	-0.776	
30	 O2P	1.891	7.121	-4.118	O.co2	2	U1	-0.776	
31	 C5'	5.621	7.881	-3.587	C.3	2	U1	0.056	
32	 O5'	4.397	7.181	-3.881	O.3	2	U1	-0.499	
33	 C4'	6.719	6.889	-3.258	C.3	2	U1	0.106	
34	 O4'	6.486	6.364	-1.919	O.3	2	U1	-0.355	
35	 C3'	6.776	5.642	-4.140	C.3	2	U1	0.202	
36	 O3'	7.397	5.908	-5.390	 O	2	U1	-0.525	
37	 C2'	7.567	4.725	-3.208	C.3	2	U1	0.067	
38	 O2'	8.962	4.910	-3.068	O.3	2	U1	-0.614	
39	 C1'	6.874	4.999	-1.877	C.3	2	U1	0.067	
40	  N1	5.666	4.158	-1.647	N.pl3	2	U1	0.042	
41	  C2	5.867	2.911	-1.107	C.2	2	U1	0.469	
42	  O2	6.971	2.482	-0.819	O.2	2	U1	-0.548	
43	  N3	4.725	2.160	-0.908	N.pl3	2	U1	-0.355	
44	  C4	3.431	2.543	-1.197	C.2	2	U1	0.595	
45	  O4	2.487	1.783	-0.974	O.2	2	U1	-0.576	
46	  C5	3.322	3.869	-1.760	C.2	2	U1	-0.363	
47	  C6	4.416	4.621	-1.964	C.2	2	U1	-0.113	
48	HO'2	9.314	4.251	-2.464	 H	2	U1	0.419	
49	  H3	4.849	1.239	-0.512	 H	2	U1	0.315	
50	  H5	2.340	4.264	-2.022	 H	2	U1	0.181	
51	  H6	4.307	5.618	-2.390	 H	2	U1	0.219	
52	 H1'	7.559	4.762	-1.063	 H	2	U1	0.182	
53	 H3'	5.822	5.223	-4.460	 H	2	U1	0.062	
54	 H4'	7.640	7.456	-3.394	 H	2	U1	0.117	
55	H2'1	7.551	3.712	-3.610	 H	2	U1	0.097	
56	H5'1	5.462	8.536	-2.730	 H	2	U1	0.068	
57	H5'2	5.916	8.473	-4.453	 H	2	U1	0.068	
@<TRIPOS>BOND
1 1 2 1
2 2 3 1
3 2 23 1
4 2 24 1
5 3 4 1
6 3 21 1
7 3 22 1
8 4 5 1
9 4 19 1
10 4 20 1
11 5 6 1
12 5 17 1
13 5 18 1
14 6 7 1
15 6 15 1
16 6 16 1
17 7 11 1
18 7 13 1
19 7 14 1
20 8 9 1
21 8 10 2
22 8 11 1
23 9 25 1
24 9 26 1
25 9 27 1
26 11 12 1
27 1 28 1
28 28 29 2
29 28 30 1
30 28 32 1
31 31 32 1
32 31 33 1
33 31 56 1
34 31 57 1
35 33 34 1
36 33 35 1
37 33 54 1
38 34 39 1
39 35 36 1
40 35 37 1
41 35 53 1
42 37 38 1
43 37 39 1
44 37 55 1
45 38 48 1
46 39 40 1
47 39 52 1
48 40 41 1
49 40 47 1
50 41 42 2
51 41 43 1
52 43 44 1
53 43 49 1
54 44 45 2
55 44 46 1
56 46 47 2
57 46 50 1
58 47 51 1
@<TRIPOS>SUBSTRUCTURE
1	POS1	1	GROUP	1 ****	POS
2	U1	28	RESIDUE	1 A	U
