@<TRIPOS>MOLECULE
DTM
62 63 2
SMALL
USER_CHARGES
@<TRIPOS>ATOM
1	P	21.114	48.538	19.199	P	1	DTM	1.1659
2	O1P	20.695	47.542	18.188	O.2	1	DTM	-0.7761
3	O2P	22.139	49.513	18.764	O.3	1	DTM	-0.7761
4	C5'	19.083	48.749	20.841	C.3	1	DTM	-0.0069
5	O5'	19.830	49.319	19.750	O.3	1	DTM	-0.4954
6	C4'	18.733	49.827	21.848	C.3	1	DTM	0.1629
7	O4'	19.774	50.007	22.851	O.3	1	DTM	-0.3691
8	C3'	18.526	51.229	21.276	C.3	1	DTM	0.0713
9	O3'	17.477	51.868	21.995	O.3	1	DTM	-0.5232
10	C2'	19.834	51.964	21.570	C.3	1	DTM	-0.0854
11	C1'	20.047	51.395	22.969	C.3	1	DTM	0.0680
12	N1	21.439	51.551	23.474	N.pl3	1	DTM	-0.0239
13	C2	21.595	51.770	24.821	C.2	1	DTM	0.5677
14	O2	20.656	51.838	25.595	O.2	1	DTM	-0.5881
15	N3	22.899	51.911	25.253	N.pl3	1	DTM	-0.4340
16	C4	24.032	51.852	24.467	C.2	1	DTM	0.5194
17	O4	25.150	51.994	24.968	O.2	1	DTM	-0.5563
18	C5	23.767	51.619	23.067	C.2	1	DTM	0.0025
19	C6	22.508	51.479	22.620	C.2	1	DTM	-0.2209
20	C7	24.945	51.542	22.141	C.3	1	DTM	-0.2269
21	H3	23.038	52.073	26.240	H	1	DTM	0.3420
22	H6	22.334	51.304	21.558	H	1	DTM	0.2607
23	H1'	19.405	51.926	23.672	H	1	DTM	0.1804
24	H3'	18.274	51.217	20.215	H	1	DTM	0.0985
25	H4'	17.796	49.444	22.252	H	1	DTM	0.1176
26	H73	24.842	51.334	21.076	H	1	DTM	0.0770
27	H2'1	19.817	53.050	21.480	H	1	DTM	0.0718
28	H2'2	20.632	51.692	20.880	H	1	DTM	0.0718
29	H5'1	19.689	47.986	21.329	H	1	DTM	0.0754
30	H5'2	18.166	48.302	20.456	H	1	DTM	0.0754
31	C8	26.244	51.738	22.944	CD	1	DTM	0.1730
32	C9	27.594	51.694	22.205	C	1	DTM	0.6259
33	C10	29.965	51.670	21.821	CT	1	DTM	0.2994
34	C11	31.347	51.665	22.503	CT	1	DTM	-0.0654
35	C12	32.445	51.583	21.410	CT	1	DTM	-0.0436
36	C13	33.869	51.650	22.000	CT	1	DTM	0.0408
37	C14	34.910	51.527	20.862	CT	1	DTM	0.0488
38	C15	36.354	51.668	21.385	CT	1	DTM	0.0523
39	C16	38.580	51.453	20.525	C	1	DTM	0.5972
40	C17	39.553	51.333	19.373	CT	1	DTM	-0.3662
41	N98	28.916	51.805	22.842	N	1	DTM	-0.8370
42	O98	38.977	51.465	21.697	O	1	DTM	-0.5679
43	N99	37.316	51.546	20.281	N	1	DTM	-0.4807
44	O99	27.759	51.542	20.792	O	1	DTM	-0.5541
45	H11	36.987	51.533	19.327	H	1	DTM	0.2741
46	H12	36.547	50.897	22.135	H1	1	DTM	0.0469
47	H13	36.474	52.650	21.865	H1	1	DTM	0.0469
48	H14	34.796	50.554	20.376	HC	1	DTM	0.0122
49	H15	34.727	52.299	20.111	HC	1	DTM	0.0122
50	H16	34.022	50.852	22.719	HC	1	DTM	-0.0114
51	H17	34.010	52.603	22.519	HC	1	DTM	-0.0114
52	H18	32.326	50.660	20.850	HC	1	DTM	-0.0049
53	H19	32.320	52.408	20.709	HC	1	DTM	-0.0049
54	H21	31.430	52.630	23.002	HC	1	DTM	0.0369
55	H22	31.458	50.828	23.192	HC	1	DTM	0.0369
56	H23	29.906	52.508	21.127	H1	1	DTM	0.0245
57	H24	29.825	50.737	21.276	H1	1	DTM	0.0245
58	H71	26.182	51.904	24.019	HA	1	DTM	0.0174
59	H95	40.248	52.160	19.387	HC	1	DTM	0.1123
60	H96	39.019	51.339	18.434	HC	1	DTM	0.1123
61	H97	40.108	50.408	19.452	HC	1	DTM	0.1123
62	H98	29.077	51.951	23.828	H	1	DTM	0.3947
@<TRIPOS>BOND
1 1 2 2
2 1 3 1
3 1 5 1
4 4 5 1
5 4 6 1
6 4 29 1
7 4 30 1
8 6 7 1
9 6 8 1
10 6 25 1
11 7 11 1
12 8 9 1
13 8 10 1
14 8 24 1
15 10 11 1
16 10 27 1
17 10 28 1
18 11 12 1
19 11 23 1
20 12 13 1
21 12 19 1
22 13 14 2
23 13 15 1
24 15 16 1
25 15 21 1
26 16 17 2
27 16 18 1
28 18 19 2
29 18 20 1
30 19 22 1
31 20 26 1
32 20 31 1
33 31 32 1
34 31 58 1
35 32 41 1
36 32 44 2
37 33 34 1
38 33 41 1
39 33 56 1
40 33 57 1
41 34 35 1
42 34 54 1
43 34 55 1
44 35 36 1
45 35 52 1
46 35 53 1
47 36 37 1
48 36 50 1
49 36 51 1
50 37 38 1
51 37 48 1
52 37 49 1
53 38 43 1
54 38 46 1
55 38 47 1
56 39 40 1
57 39 42 2
58 39 43 1
59 40 59 1
60 40 60 1
61 40 61 1
62 41 62 1
63 43 45 1
@<TRIPOS>SUBSTRUCTURE
1 DTM 1 GROUP 1 **** DTM
2 DTM 31 GROUP 1 **** DTM
