@<TRIPOS>MOLECULE
RUP
87 88 3
SMALL
USER_CHARGES
@<TRIPOS>ATOM
1	O01	2.659	9.073	-3.098	OS	1	RUP	-0.540116
2	C10	1.420	9.687	-3.461	CT	1	RUP	0.337652
3	C11	1.045	10.747	-2.407	CT	1	RUP	-0.059584
4	C12	-0.329	11.363	-2.782	CT	1	RUP	0.041626
5	C13	-0.822	12.385	-1.737	CT	1	RUP	0.006917
6	C14	-2.174	12.983	-2.191	CT	1	RUP	0.017795
7	C15	-2.756	13.954	-1.143	CT	1	RUP	0.115447
8	C16	-4.602	15.471	-0.962	C	1	RUP	0.597200
9	C17	-5.923	16.020	-1.453	CT	1	RUP	-0.366200
10	O98	-4.053	15.934	0.046	O	1	RUP	-0.567900
11	N99	-4.037	14.504	-1.605	N	1	RUP	-0.494803
12	H11	-4.479	14.125	-2.430	H	1	RUP	0.251530
13	H12	-2.045	14.764	-0.962	H1	1	RUP	0.033869
14	H13	-2.910	13.418	-0.195	H1	1	RUP	0.033869
15	H14	-2.031	13.517	-3.135	HC	1	RUP	0.004519
16	H15	-2.892	12.179	-2.367	HC	1	RUP	0.004519
17	H16	-0.097	13.181	-1.610	HC	1	RUP	-0.003782
18	H17	-0.951	11.890	-0.768	HC	1	RUP	-0.003782
19	H18	-0.253	11.844	-3.753	HC	1	RUP	-0.029758
20	H19	-1.070	10.568	-2.869	HC	1	RUP	-0.029758
21	H21	0.932	10.201	-1.470	HC	1	RUP	0.023921
22	H22	1.791	11.539	-2.341	HC	1	RUP	0.023921
23	H23	0.638	8.930	-3.507	H1	1	RUP	-0.020951
24	H24	1.522	10.164	-4.435	H1	1	RUP	-0.020951
25	H95	-6.678	15.903	-0.690	HC	1	RUP	0.112300
26	H96	-6.237	15.489	-2.341	HC	1	RUP	0.112300
27	H97	-5.823	17.069	-1.690	HC	1	RUP	0.112300
28	P	3.063	8.025	-4.135	P	2	RUP	1.166200
29	O1P	3.223	8.856	-5.350	O.2	2	RUP	-0.776000
30	O2P	1.891	7.121	-4.118	O	2	RUP	-0.776000
31	C5'	5.621	7.881	-3.587	C.3	2	RUP	0.055800
32	O5'	4.397	7.181	-3.881	O.3	2	RUP	-0.498900
33	C4'	6.719	6.889	-3.258	C.3	2	RUP	0.106500
34	O4'	6.486	6.364	-1.919	O.3	2	RUP	-0.354800
35	C3'	6.776	5.642	-4.140	C.3	2	RUP	0.202200
36	O3'	7.397	5.908	-5.390	O	2	RUP	-0.524600
37	C2'	7.567	4.725	-3.208	C.3	2	RUP	0.067000
38	O2'	8.962	4.910	-3.068	O.3	2	RUP	-0.613900
39	C1'	6.874	4.999	-1.877	C.3	2	RUP	0.067400
40	N1	5.666	4.158	-1.647	N.pl3	2	RUP	0.041800
41	C2	5.867	2.911	-1.107	C.2	2	RUP	0.468700
42	O2	6.971	2.482	-0.819	O.2	2	RUP	-0.547700
43	N3	4.725	2.160	-0.908	N.pl3	2	RUP	-0.354900
44	C4	3.431	2.543	-1.197	C.2	2	RUP	0.595200
45	O4	2.487	1.783	-0.974	O.2	2	RUP	-0.576100
46	C5	3.322	3.869	-1.760	C.2	2	RUP	-0.363500
47	C6	4.416	4.621	-1.964	C.2	2	RUP	-0.112600
48	HO'2	9.314	4.251	-2.464	H	2	RUP	0.418600
49	H3	4.849	1.239	-0.512	H	2	RUP	0.315400
50	H5	2.340	4.264	-2.022	H	2	RUP	0.181100
51	H6	4.307	5.618	-2.390	H	2	RUP	0.218800
52	H1'	7.559	4.762	-1.063	H	2	RUP	0.182400
53	H3'	5.822	5.223	-4.460	H	2	RUP	0.061500
54	H4'	7.640	7.456	-3.394	H	2	RUP	0.117400
55	H2'1	7.551	3.712	-3.610	H	2	RUP	0.097200
56	H5'1	5.462	8.536	-2.730	H	2	RUP	0.067900
57	H5'2	5.916	8.473	-4.453	H	2	RUP	0.067900
58	P1	6.494	7.035	-6.104	P	3	RUP	1.165900
59	O3P	5.202	6.284	-6.321	O2	3	RUP	-0.776100
60	O4P	6.505	8.179	-5.121	O2	3	RUP	-0.776100
61	O01	6.845	7.606	-7.390	OS	3	RUP	-0.538081
62	C10	5.872	8.585	-7.761	CT	3	RUP	0.333113
63	C11	6.238	9.181	-9.134	CT	3	RUP	-0.048957
64	C12	5.206	10.282	-9.495	CT	3	RUP	0.035134
65	C13	5.540	10.989	-10.824	CT	3	RUP	0.007925
66	C14	4.454	12.045	-11.139	CT	3	RUP	0.019489
67	C15	4.779	12.841	-12.420	CT	3	RUP	0.113937
68	C16	3.714	14.479	-13.807	C	3	RUP	0.597200
69	C17	2.627	15.500	-14.063	CT	3	RUP	-0.366200
70	O98	4.589	14.254	-14.653	O	3	RUP	-0.567900
71	N99	3.730	13.834	-12.690	N	3	RUP	-0.494649
72	H11	3.016	14.011	-11.998	H	3	RUP	0.251508
73	H12	4.868	12.153	-13.263	H1	3	RUP	0.034245
74	H13	5.743	13.356	-12.295	H1	3	RUP	0.034245
75	H14	3.490	11.543	-11.262	HC	3	RUP	0.004309
76	H15	4.364	12.741	-10.301	HC	3	RUP	0.004309
77	H16	5.593	10.271	-11.636	HC	3	RUP	-0.004179
78	H17	6.514	11.482	-10.747	HC	3	RUP	-0.004179
79	H18	4.216	9.839	-9.556	HC	3	RUP	-0.028664
80	H19	5.180	11.028	-8.700	HC	3	RUP	-0.028664
81	H21	7.211	9.653	-8.997	HC	3	RUP	0.022097
82	H22	6.248	8.423	-9.917	HC	3	RUP	0.022097
83	H23	5.852	9.379	-7.014	H1	3	RUP	-0.020418
84	H24	4.889	8.117	-7.818	H1	3	RUP	-0.020418
85	H95	3.065	16.474	-14.226	HC	3	RUP	0.112300
86	H96	1.962	15.552	-13.213	HC	3	RUP	0.112300
87	H97	2.056	15.221	-14.937	HC	3	RUP	0.112300
@<TRIPOS>BOND
1 1 2 1
2 1 28 1
3 2 3 1
4 2 23 1
5 2 24 1
6 3 4 1
7 3 21 1
8 3 22 1
9 4 5 1
10 4 19 1
11 4 20 1
12 5 6 1
13 5 17 1
14 5 18 1
15 6 7 1
16 6 15 1
17 6 16 1
18 7 11 1
19 7 13 1
20 7 14 1
21 8 9 1
22 8 10 2
23 8 11 1
24 9 25 1
25 9 26 1
26 9 27 1
27 11 12 1
28 28 29 2
29 28 30 1
30 28 32 1
31 31 32 1
32 31 33 1
33 31 56 1
34 31 57 1
35 33 34 1
36 33 35 1
37 33 54 1
38 34 39 1
39 35 36 1
40 35 37 1
41 35 53 1
42 37 38 1
43 37 39 1
44 37 55 1
45 38 48 1
46 39 40 1
47 39 52 1
48 40 41 1
49 40 47 1
50 41 42 2
51 41 43 1
52 43 44 1
53 43 49 1
54 44 45 2
55 44 46 1
56 46 47 2
57 46 50 1
58 47 51 1
59 58 59 1
60 58 60 1
61 58 61 1
62 61 62 1
63 62 63 1
64 62 83 1
65 62 84 1
66 63 64 1
67 63 81 1
68 63 82 1
69 64 65 1
70 64 79 1
71 64 80 1
72 65 66 1
73 65 77 1
74 65 78 1
75 66 67 1
76 66 75 1
77 66 76 1
78 67 71 1
79 67 73 1
80 67 74 1
81 68 69 1
82 68 70 2
83 68 71 1
84 69 85 1
85 69 86 1
86 69 87 1
87 71 72 1
88 36 58 1
@<TRIPOS>SUBSTRUCTURE
1 RUP 1 GROUP 1 **** RUP
2 RUP 28 GROUP 2 **** RUP
3 RUP 58 GROUP 3 **** RUP
