@<TRIPOS>MOLECULE
adenosine
33 35 1                 
SMALL
USER_CHARGES
@<TRIPOS>ATOM
  1     P  3.063  8.025 -4.135      P  1  A1  1.1662
  2   O1P  3.223  8.856 -5.350    O.2  1  A1 -0.7760
  3   O2P  1.891  7.121 -4.118    O.3  1  A1 -0.7760
  4   C5'  5.621  7.881 -3.587    C.3  1  A1  0.0558
  5   O5'  4.397  7.181 -3.881    O.3  1  A1 -0.4989
  6   C4'  6.718  6.889 -3.258    C.3  1  A1  0.1065
  7   O4'  6.486  6.363 -1.919    O.3  1  A1 -0.3548
  8   C3'  6.776  5.641 -4.140    C.3  1  A1  0.2022
  9   O3'  7.398  5.908 -5.390    O.3  1  A1 -0.5246
 10   C2'  7.566  4.726 -3.208    C.3  1  A1  0.0670
 11   C1'  6.874  5.000 -1.877    C.3  1  A1  0.0394
 12    N1  5.134  0.481 -0.167    N.2  1  A1 -0.7615
 13    C2  6.356  1.001 -0.262    C.2  1  A1  0.5875
 14    N3  6.725  2.179 -0.716    N.2  1  A1 -0.6997
 15    C4  5.655  2.893 -1.121    C.2  1  A1  0.3053
 16    C5  4.348  2.496 -1.086    C.2  1  A1  0.0515
 17    C6  4.082  1.215 -0.578    C.2  1  A1  0.7009
 18    N6  2.849  0.697 -0.485  N.pl3  1  A1 -0.9019
 19    N7  3.524  3.496 -1.584    N.2  1  A1 -0.6073
 20    C8  4.345  4.449 -1.900    C.2  1  A1  0.2006
 21    N9  5.666  4.158 -1.647  N.pl3  1  A1 -0.0251
 22  H5'1  5.462  8.536 -2.730      H  1  A1  0.0679
 23  H5'2  5.916  8.473 -4.453      H  1  A1  0.0679
 24   H4'  7.638  7.457 -3.394      H  1  A1  0.1174
 25   H3'  5.823  5.221 -4.460      H  1  A1  0.0615
 26  H2'1  7.570  3.677 -3.505      H  1  A1  0.0972
 27   H1'  7.560  4.764 -1.063      H  1  A1  0.2007
 28    H2  7.166  0.359  0.086      H  1  A1  0.0473
 29   H61  2.718 -0.232 -0.111      H  1  A1  0.4115
 30   H62  2.051  1.236 -0.789      H  1  A1  0.4115
 31    H8  4.018  5.396 -2.328      H  1  A1  0.1553
 32  HO'2  9.266  5.035 -2.261      H  1  A1  0.4186
 33   O2'  8.949  5.085 -3.166    O.3  1  A1 -0.6139
@<TRIPOS>BOND
1 1 2 2
2 1 3 1
3 1 5 1
4 4 5 1
5 4 6 1
6 4 22 1
7 4 23 1
8 6 7 1
9 6 8 1
10 6 24 1
11 7 11 1
12 8 9 1
13 8 10 1
14 8 25 1
15 10 11 1
16 10 26 1
17 10 33 1
18 11 21 1
19 11 27 1
20 12 13 1
21 12 17 2
22 13 14 2
23 13 28 1
24 14 15 1
25 15 16 2
26 15 21 1
27 16 17 1
28 16 19 1
29 17 18 1
30 18 29 1
31 18 30 1
32 19 20 2
33 20 21 1
34 20 31 1
35 32 33 1
@<TRIPOS>SUBSTRUCTURE
1	A1	1	GROUP	1 A	A
