@<TRIPOS>MOLECULE
cytidine
31 32 1                 
SMALL
USER_CHARGES
@<TRIPOS>ATOM
  1     P  3.063  8.025 -4.135      P  1  C1  1.1662
  2   O1P  3.223  8.856 -5.350    O.2  1  C1 -0.7760
  3   O2P  1.891  7.121 -4.118    O.3  1  C1 -0.7760
  4   C5'  5.621  7.881 -3.587    C.3  1  C1  0.0558
  5   O5'  4.397  7.181 -3.881    O.3  1  C1 -0.4989
  6   C4'  6.718  6.889 -3.258    C.3  1  C1  0.1065
  7   O4'  6.486  6.363 -1.919    O.3  1  C1 -0.3548
  8   C3'  6.776  5.641 -4.140    C.3  1  C1  0.2022
  9   O3'  7.398  5.908 -5.390    O.3  1  C1 -0.5246
 10   C2'  7.566  4.726 -3.208    C.3  1  C1  0.0670
 11   C1'  6.874  5.000 -1.877    C.3  1  C1  0.0066
 12    N1  5.666  4.158 -1.647  N.pl3  1  C1 -0.0484
 13    C2  5.853  2.891 -1.100    C.2  1  C1  0.7538
 14    O2  7.001  2.521 -0.831    O.2  1  C1 -0.6252
 15    N3  4.764  2.108 -0.883    N.2  1  C1 -0.7584
 16    C4  3.536  2.547 -1.188    C.2  1  C1  0.8185
 17    N4  2.508  1.746 -0.956  N.pl3  1  C1 -0.9530
 18    C5  3.323  3.847 -1.751    C.2  1  C1 -0.5215
 19    C6  4.423  4.613 -1.961    C.2  1  C1  0.0053
 20  H5'1  5.462  8.536 -2.730      H  1  C1  0.0679
 21  H5'2  5.916  8.473 -4.453      H  1  C1  0.0679
 22   H4'  7.638  7.457 -3.394      H  1  C1  0.1174
 23   H3'  5.823  5.221 -4.460      H  1  C1  0.0615
 24  H2'1  7.570  3.677 -3.505      H  1  C1  0.0972
 25   H1'  7.560  4.764 -1.063      H  1  C1  0.2029
 26   H41  1.571  2.051 -1.176      H  1  C1  0.4234
 27   H42  2.661  0.830 -0.559      H  1  C1  0.4234
 28    H5  2.324  4.204 -1.999      H  1  C1  0.1928
 29    H6  4.309  5.609 -2.388      H  1  C1  0.1958
 30  HO'2  9.266  5.035 -2.261      H  1  C1  0.4186
 31   O2'  8.949  5.085 -3.166    O.3  1  C1 -0.6139
@<TRIPOS>BOND
1 1 2 2
2 1 3 1
3 1 5 1
4 4 5 1
5 4 6 1
6 4 20 1
7 4 21 1
8 6 7 1
9 6 8 1
10 6 22 1
11 7 11 1
12 8 9 1
13 8 10 1
14 8 23 1
15 10 11 1
16 10 24 1
17 10 31 1
18 11 12 1
19 11 25 1
20 12 13 1
21 12 19 1
22 13 14 2
23 13 15 1
24 15 16 2
25 16 17 1
26 16 18 1
27 17 26 1
28 17 27 1
29 18 19 2
30 18 28 1
31 19 29 1
32 30 31 1
@<TRIPOS>SUBSTRUCTURE
1	C1	1	GROUP	1 A	C
