@<TRIPOS>MOLECULE
guanosine
34 36 1                 
SMALL
USER_CHARGES
@<TRIPOS>ATOM
  1     P  3.063  8.025 -4.135      P  1  G1  1.1662
  2   O1P  3.223  8.856 -5.350    O.2  1  G1 -0.7760
  3   O2P  1.891  7.121 -4.118    O.3  1  G1 -0.7760
  4   C5'  5.621  7.881 -3.587    C.3  1  G1  0.0558
  5   O5'  4.397  7.181 -3.881    O.3  1  G1 -0.4989
  6   C4'  6.718  6.889 -3.258    C.3  1  G1  0.1065
  7   O4'  6.486  6.363 -1.919    O.3  1  G1 -0.3548
  8   C3'  6.776  5.641 -4.140    C.3  1  G1  0.2022
  9   O3'  7.398  5.908 -5.390    O.3  1  G1 -0.5246
 10   C2'  7.566  4.726 -3.208    C.3  1  G1  0.0670
 11   C1'  6.874  5.000 -1.877    C.3  1  G1  0.0191
 12    N1  5.185  0.505 -0.172  N.pl3  1  G1 -0.4787
 13    C2  6.474  0.995 -0.248    C.2  1  G1  0.7657
 14    N2  7.438  0.180  0.188  N.pl3  1  G1 -0.9672
 15    N3  6.771  2.203 -0.722    N.2  1  G1 -0.6323
 16    C4  5.664  2.886 -1.117    C.2  1  G1  0.1222
 17    C5  4.351  2.483 -1.079    C.2  1  G1  0.1744
 18    C6  4.033  1.195 -0.574    C.2  1  G1  0.4770
 19    O6  2.932  0.661 -0.462    O.2  1  G1 -0.5597
 20    N7  3.516  3.480 -1.579    N.2  1  G1 -0.5709
 21    C8  4.342  4.447 -1.899    C.2  1  G1  0.1374
 22    N9  5.666  4.158 -1.647  N.pl3  1  G1  0.0492
 23  H5'1  5.462  8.536 -2.730      H  1  G1  0.0679
 24  H5'2  5.916  8.473 -4.453      H  1  G1  0.0679
 25   H4'  7.638  7.457 -3.394      H  1  G1  0.1174
 26   H3'  5.823  5.221 -4.460      H  1  G1  0.0615
 27  H2'1  7.570  3.677 -3.505      H  1  G1  0.0972
 28   H1'  7.560  4.764 -1.063      H  1  G1  0.2006
 29    H1  5.063 -0.425  0.203      H  1  G1  0.3424
 30   H21  8.403  0.478  0.160      H  1  G1  0.4364
 31   H22  7.203 -0.735  0.546      H  1  G1  0.4364
 32    H8  4.011  5.394 -2.326      H  1  G1  0.1640
 33  HO'2  9.266  5.035 -2.261      H  1  G1  0.4186
 34   O2'  8.949  5.085 -3.166    O.3  1  G1 -0.6139
@<TRIPOS>BOND
1 1 2 2
2 1 3 1
3 1 5 1
4 4 5 1
5 4 6 1
6 4 23 1
7 4 24 1
8 6 7 1
9 6 8 1
10 6 25 1
11 7 11 1
12 8 9 1
13 8 10 1
14 8 26 1
15 10 11 1
16 10 27 1
17 10 34 1
18 11 22 1
19 11 28 1
20 12 13 1
21 12 18 1
22 12 29 1
23 13 14 1
24 13 15 2
25 14 30 1
26 14 31 1
27 15 16 1
28 16 17 2
29 16 22 1
30 17 18 1
31 17 20 1
32 18 19 2
33 20 21 2
34 21 22 1
35 21 32 1
36 33 34 1
@<TRIPOS>SUBSTRUCTURE
1	G1	1	GROUP	1 A	G
